McPAT (version 1.3 of Feb, 2015) is computing the target processor...
 
XML Parsing error inside file '/home/mousikos/my_mcpat/mcpat/xmls_gem5/specmcf_3.xml'.
Error: File not found
At line 0, column 0.
